nrt/data/Trident/trident.xiidm
<?xml version="1.0" encoding="UTF-8"?>
<iidm:network xmlns:iidm="http://www.powsybl.org/schema/iidm/1_5" id="trident" caseDate="2025-12-04T17:58:06.263Z" forecastDistance="0" sourceFormat="code" minimumValidationLevel="STEADY_STATE_HYPOTHESIS">
    <iidm:substation id="s">
        <iidm:voltageLevel id="vl1" nominalV="20.0" topologyKind="BUS_BREAKER">
            <iidm:busBreakerTopology>
                <iidm:bus id="b1"/>
            </iidm:busBreakerTopology>
            <iidm:generator id="g1" energySource="THERMAL" minP="0.0" maxP="200.0" voltageRegulatorOn="true" targetP="100.0" targetV="413.4" bus="b1" connectableBus="b1"/>
        </iidm:voltageLevel>
        <iidm:voltageLevel id="vl2" nominalV="20.0" topologyKind="BUS_BREAKER">
            <iidm:busBreakerTopology>
                <iidm:bus id="b2"/>
            </iidm:busBreakerTopology>
            <iidm:generator id="g2" energySource="THERMAL" minP="0.0" maxP="200.0" voltageRegulatorOn="true" targetP="100.0" targetV="413.4" bus="b2" connectableBus="b2"/>
        </iidm:voltageLevel>
        <iidm:voltageLevel id="vl3" nominalV="20.0" topologyKind="BUS_BREAKER">
            <iidm:busBreakerTopology>
                <iidm:bus id="b3"/>
            </iidm:busBreakerTopology>
            <iidm:generator id="g3" energySource="THERMAL" minP="0.0" maxP="200.0" voltageRegulatorOn="true" targetP="100.0" targetV="413.4" bus="b3" connectableBus="b3"/>
        </iidm:voltageLevel>
        <iidm:voltageLevel id="vl4" nominalV="400.0" topologyKind="BUS_BREAKER">
            <iidm:busBreakerTopology>
                <iidm:bus id="b4"/>
            </iidm:busBreakerTopology>
            <iidm:load id="l4" loadType="UNDEFINED" p0="299.6" q0="200.0" bus="b4" connectableBus="b4" p="300"/>
        </iidm:voltageLevel>
        <iidm:twoWindingsTransformer id="tr1" r="0.00263" x="0.07940" g="0.0" b="0.0" ratedU1="399.0" ratedU2="20.5" voltageLevelId1="vl4" bus1="b4" voltageLevelId2="vl1" bus2="b1"/>
        <iidm:twoWindingsTransformer id="tr2" r="0.00258" x="0.09265" g="0.0" b="0.0" ratedU1="398.0" ratedU2="20.2" voltageLevelId1="vl4" bus1="b4" voltageLevelId2="vl2" bus2="b2"/>
        <iidm:twoWindingsTransformer id="tr3" r="0.00576" x="0.14395" g="0.0" b="0.0" ratedU1="397.0" ratedU2="21.3" voltageLevelId1="vl4" bus1="b4" voltageLevelId2="vl3" bus2="b3"/>
    </iidm:substation>
</iidm:network>
